tests/data/short_circuit/floating-ground-edge-case/floating-ground-no-error-succeeded-scenarios/delta-wye_n/sc_output_batch.json
{
  "version": "1.0",
  "type": "sc_output",
  "is_batch": true,
  "attributes": {},
  "data": [
    {
      "node": [
        {"id": 1, "energized": 1, "u_pu": [1.0999999997750298, 1.099999999999915, 1.0999999993731284], "u": [6350.8529597870174, 6350.852961085393, 6350.8529574666391], "u_angle": [5.3998444232934915e-10, -2.0943951023931322, 2.094395102486168]},
        {"id": 2, "energized": 1, "u_pu": [0, 1.0999358374787733, 1.0999358370769019], "u": [0, 63.50482518596862, 63.504825162766565], "u_angle": [0, -2.6179794449881841, 1.5707818940026461]}
      ],
      "transformer": [
        {"id": 4, "energized": 1, "i_from": [36.670944435687595, 0.0063506941977069416, 36.670944435684888], "i_from_angle": [-1.9941410905363317, 2.7181612991517619, 1.1472783825067543], "i_to": [6350.95879653671, 6.4098756212785464e-13, 1.3043151910263324e-12], "i_to_angle": [1.1473649727801081, 1.5707963267948966, -2.9562447035940984]}
      ],
      "source": [
        {"id": 3, "energized": 1, "i": [36.670938027698256, 0.0063362924080585283, 36.670930553381012], "i_angle": [-1.9941411801013165, 2.7173024449518475, 1.1472783519071938]}
      ],
      "fault": [
        {"id": 11, "energized": 1, "i_f": [6350.9587965367073, 0, 0], "i_f_angle": [-1.9942276808096853, 0, 0]}
      ]
    },
    {
      "node": [
        {"id": 1, "energized": 1, "u_pu": [1.0999999991482574, 1.1000000000884216, 1.0999999994855794], "u": [6350.8529561683454, 6350.8529615963853, 6350.8529581158746], "u_angle": [6.3288330006548035e-10, -2.094395101899674, 2.0943951022162106]},
        {"id": 2, "energized": 1, "u_pu": [0.54997250137488873, 0.54997250137488873, 1.0999450027497772], "u": [31.752677171568383, 31.752677171568383, 63.505354343136752], "u_angle": [-1.5707963267948328, -1.5707963267948328, 1.5707963267949601]}
      ],
      "transformer": [
        {"id": 4, "energized": 1, "i_from": [63.511704988161533, 31.755852970350603, 31.755852970343604], "i_from_angle": [-1.4706289050004533, 1.6711369406789842, 1.6707905564996957], "i_to": [5499.9999957412847, 5499.9999957412865, 1.2819751242557093e-12], "i_to_angle": [1.67096374858934, -1.4706289050004533, 0]}
      ],
      "source": [
        {"id": 3, "energized": 1, "i": [63.511686579668918, 31.755845818737146, 31.755851639489531], "i_angle": [-1.4706289872266858, 1.6711366130981662, 1.6707905793263016]}
      ],
      "fault": [
        {"id": 11, "energized": 1, "i_f": [5499.9999957412847, 5499.9999957412847, 0], "i_f_angle": [-1.4706289050004533, 1.67096374858934, 0]}
      ]
    },
    {
      "node": [
        {"id": 1, "energized": 1, "u_pu": [1.0999999991482574, 1.0999999997750232, 1.0999999993731351], "u": [6350.8529561683454, 6350.8529597869792, 6350.8529574666773], "u_angle": [6.3288330006548035e-10, -2.0943951018532183, 2.0943951024861756]},
        {"id": 2, "energized": 1, "u_pu": [0, 0, 1.0999266712712679], "u": [0, 0, 63.504295974731548], "u_angle": [0, 0, 1.5707963270059071]}
      ],
      "transformer": [
        {"id": 4, "energized": 1, "i_from": [63.511704988161533, 36.670638977569773, 36.670638964170465], "i_from_angle": [-1.4706289050004535, 2.194663545809906, 1.1472639511577638], "i_to": [6350.9058767357792, 6350.9058790561376, 1.2844765415108726e-12], "i_to_angle": [1.1473505399877872, -0.94701569660984752, -3.0791738435938361]}
      ],
      "source": [
        {"id": 3, "energized": 1, "i": [63.511686579668918, 36.670632135963444, 36.670628707201409], "i_angle": [-1.4706289872266858, 2.1946632037515195, 1.1472637298351516]}
      ],
      "fault": [
        {"id": 11, "energized": 1, "i_f": [6350.9058767357783, 6350.9058790561376, 0], "i_f_angle": [-1.9942421136020061, 2.1945769569799456, 0]}
      ]
    },
    {
      "node": [
        {"id": 1, "energized": 1, "u_pu": [1.0999999997556327, 1.099999999999915, 1.0999999994312608], "u": [6350.8529596750277, 6350.852961085393, 6350.8529578022662], "u_angle": [4.6878039165085759e-10, -2.0943951023931322, 2.0943951024352949]},
        {"id": 2, "energized": 1, "u_pu": [0.13975800139931963, 1.0999356486494822, 1.0999379419205488], "u": [8.0689319729301285, 63.504814283904416, 63.504946685971177], "u_angle": [-1.1283330600089785, -2.6179815555432473, 1.5707828006583873]}
      ],
      "transformer": [
        {"id": 4, "energized": 1, "i_from": [32.945367350897016, 0.0063506941977056249, 32.944856779383713], "i_from_angle": [-1.9136485767775111, 2.7181612991522219, 1.2277519348968129], "i_to": [5705.596514991842, 9.0649330367367893e-13, 4.0061722632990915e-13], "i_to_angle": [1.2278614301833666, -0.78539816339744828, -1.5707963267948966]}
      ],
      "source": [
        {"id": 3, "energized": 1, "i": [32.945355199956914, 0.0063439813828656023, 32.944843836013668], "i_angle": [-1.9136490212624255, 2.7172547187517906, 1.227751644297306]}
      ],
      "fault": [
        {"id": 11, "energized": 1, "i_f": [5705.5965149918411, 0, 0], "i_f_angle": [-1.9137312234064268, 0, 0]}
      ]
    },
    {
      "node": [
        {"id": 1, "energized": 1, "u_pu": [1.0999999991659664, 1.1000000000618806, 1.099999999520975], "u": [6350.852956270588, 6350.8529614431509, 6350.8529583202317], "u_angle": [5.6786711169442186e-10, -2.094395101922899, 2.0943951022069274]},
        {"id": 2, "energized": 1, "u_pu": [0.590435148293176, 0.51426498090185369, 1.0999450027497775], "u": [34.088789180608174, 29.691102515848296, 63.505354343136766], "u_angle": [-1.4841904407649718, -1.670269522095269, 1.5707963267949601]}
      ],
      "transformer": [
        {"id": 4, "energized": 1, "i_from": [60.161020367135485, 30.080743802339299, 30.080277568573834], "i_from_angle": [-1.4282302557484861, 1.7135450701818742, 1.7131797226693839], "i_to": [5209.8081810063959, 5209.8081810063977, 1.3431136888747397e-12], "i_to_angle": [1.7133668726421265, -1.4282257809476671, -0.30288486837497142]}
      ],
      "source": [
        {"id": 3, "energized": 1, "i": [60.161012864038511, 30.080744689041655, 30.080274034073422], "i_angle": [-1.4282301284916348, 1.7135448062163248, 1.7131797556486161]}
      ],
      "fault": [
        {"id": 11, "energized": 1, "i_f": [5209.8081810063986, 5209.8081810063986, 0], "i_f_angle": [-1.4282257809476664, 1.7133668726421267, 0]}
      ]
    },
    {
      "node": [
        {"id": 1, "energized": 1, "u_pu": [1.0999999991482572, 1.0999999998307313, 1.099999999360266], "u": [6350.8529561683436, 6350.8529601086102, 6350.8529573923779], "u_angle": [6.3288339202224101e-10, -2.0943951018959663, 2.0943951024209428]},
        {"id": 2, "energized": 1, "u_pu": [0.12626409282220352, 0.12626409282220352, 1.0999302822362709], "u": [7.2898607979883092, 7.2898607979883092, 63.504504453893205], "u_angle": [-2.1102192663129316, -2.1102192663129316, 1.5707943616552378]}
      ],
      "transformer": [
        {"id": 4, "energized": 1, "i_from": [63.511704988161526, 33.055925930075531, 36.977078468264409], "i_from_angle": [-1.4706289050004533, 2.1327240285452311, 1.2613227687364315], "i_to": [6404.0541966958981, 5724.8237846768361, 1.3043151910263324e-12], "i_to_angle": [1.2614250123350363, -1.00897480044767, 0.18534794999569476]}
      ],
      "source": [
        {"id": 3, "energized": 1, "i": [63.511700275773677, 33.055925161771974, 36.977072073752232], "i_angle": [-1.4706290089000025, 2.1327237817474454, 1.2613226235720711]}
      ],
      "fault": [
        {"id": 11, "energized": 1, "i_f": [6404.0541966959008, 5724.8237846768352, 0], "i_f_angle": [-1.8801676412547568, 2.1326178531421229, 0]}
      ]
    }
  ]
}